<?xml version="1.0" encoding="UTF-8"?>

<!-- generated on Wed Nov 11 15:02:17 2020 by Eclipse SUMO netconvert Version 1.2.0
<configuration xmlns:xsi="http://www.w3.org/2001/XMLSchema-instance" xsi:noNamespaceSchemaLocation="http://sumo.dlr.de/xsd/netconvertConfiguration.xsd">

    <input>
        <opendrive-files value="gym_carla/envs/map.xodr"/>
    </input>

    <output>
        <output-file value="gym_carla/envs/test.net.xml"/>
    </output>

    <processing>
        <offset.disable-normalization value="true"/>
    </processing>

    <tls_building>
        <tls.left-green.time value="0"/>
    </tls_building>

    <junctions>
        <rectangular-lane-cut value="true"/>
    </junctions>

    <formats>
        <opendrive.import-all-lanes value="true"/>
        <opendrive.curve-resolution value="0.5"/>
    </formats>

</configuration>
-->

<net version="1.1" junctionCornerDetail="5" rectangularLaneCut="true" limitTurnSpeed="5.50" xmlns:xsi="http://www.w3.org/2001/XMLSchema-instance" xsi:noNamespaceSchemaLocation="http://sumo.dlr.de/xsd/net_file.xsd">

    <location netOffset="0.00,0.00" convBoundary="-286.97,-269.44,310.86,313.14" origBoundary="-286.23,-264.80,306.23,310.27" projParameter="!"/>

    <type id="bidirectional" priority="1" speed="1.39" disallow="tram rail_urban rail rail_electric pedestrian ship" width="3.65"/>
    <type id="border" priority="0" speed="1.39" disallow="all" discard="1" width="0.10"/>
    <type id="driving" priority="1" speed="13.89" disallow="tram rail_urban rail rail_electric pedestrian ship" width="3.65"/>
    <type id="entry" priority="1" speed="22.22" disallow="tram rail_urban rail rail_electric pedestrian ship" width="3.65"/>
    <type id="exit" priority="1" speed="22.22" disallow="tram rail_urban rail rail_electric pedestrian ship" width="3.65"/>
    <type id="median" priority="0" speed="1.39" disallow="all" discard="1" width="0.10"/>
    <type id="mwyEntry" priority="1" speed="22.22" allow="private emergency authority army vip passenger hov taxi bus coach delivery truck trailer motorcycle evehicle custom1 custom2" width="3.65"/>
    <type id="mwyExit" priority="1" speed="22.22" allow="private emergency authority army vip passenger hov taxi bus coach delivery truck trailer motorcycle evehicle custom1 custom2" width="3.65"/>
    <type id="none" priority="0" speed="1.39" disallow="all" discard="1" width="1.00"/>
    <type id="offRamp" priority="1" speed="22.22" allow="private emergency authority army vip passenger hov taxi bus coach delivery truck trailer motorcycle evehicle custom1 custom2" width="3.65"/>
    <type id="onRamp" priority="1" speed="22.22" allow="private emergency authority army vip passenger hov taxi bus coach delivery truck trailer motorcycle evehicle custom1 custom2" width="3.65"/>
    <type id="parking" priority="1" speed="1.39" disallow="tram rail_urban rail rail_electric pedestrian ship" width="2.50"/>
    <type id="rail" priority="3" speed="33.33" allow="rail_urban rail rail_electric" width="3.65"/>
    <type id="restricted" priority="0" speed="13.89" disallow="all" width="3.65"/>
    <type id="roadWorks" priority="0" speed="1.39" allow="authority" width="3.65"/>
    <type id="shoulder" priority="0" speed="1.39" disallow="all" discard="1" width="1.00"/>
    <type id="special1" priority="1" speed="22.22" allow="custom1" discard="1" width="3.65"/>
    <type id="special2" priority="1" speed="22.22" allow="custom2" discard="1" width="3.65"/>
    <type id="special3" priority="1" speed="22.22" allow="custom1 custom2" discard="1" width="3.65"/>
    <type id="stop" priority="1" speed="13.89" disallow="tram rail_urban rail rail_electric pedestrian ship" width="3.65"/>
    <type id="tram" priority="2" speed="13.89" allow="tram" width="3.65"/>

    <edge id=":106_0" function="internal">
        <lane id=":106_0_0" index="0" disallow="tram rail_urban rail rail_electric pedestrian ship" speed="13.89" length="39.06" width="3.50" shape="18.46,-130.83 -20.59,-130.93"/>
    </edge>
    <edge id=":106_1" function="internal">
        <lane id=":106_1_0" index="0" disallow="tram rail_urban rail rail_electric pedestrian ship" speed="12.43" length="35.42" width="3.50" shape="18.46,-130.83 7.76,-132.18 0.14,-135.90 -4.41,-141.97 -5.89,-150.40"/>
    </edge>
    <edge id=":106_2" function="internal">
        <lane id=":106_2_0" index="0" disallow="tram rail_urban rail rail_electric pedestrian ship" speed="10.17" length="23.34" width="3.50" shape="5.61,-150.33 6.38,-143.40 8.78,-138.42 12.83,-135.40 18.51,-134.33"/>
    </edge>
    <edge id=":106_3" function="internal">
        <lane id=":106_3_0" index="0" disallow="tram rail_urban rail rail_electric pedestrian ship" speed="13.89" length="35.27" width="3.50" shape="5.61,-150.33 5.39,-115.06"/>
        <lane id=":106_3_1" index="1" disallow="tram rail_urban rail rail_electric pedestrian ship" speed="13.89" length="35.27" width="3.50" shape="2.11,-150.35 1.89,-115.08"/>
    </edge>
    <edge id=":106_5" function="internal">
        <lane id=":106_5_0" index="0" disallow="tram rail_urban rail rail_electric pedestrian ship" speed="9.81" length="22.05" width="3.50" shape="-20.51,-134.43 -15.69,-135.34 -12.22,-138.31 -10.13,-143.33 -9.39,-150.42"/>
    </edge>
    <edge id=":106_6" function="internal">
        <lane id=":106_6_0" index="0" disallow="tram rail_urban rail rail_electric pedestrian ship" speed="13.89" length="39.03" width="3.50" shape="-20.51,-134.43 18.51,-134.33"/>
    </edge>
    <edge id=":106_7" function="internal">
        <lane id=":106_7_0" index="0" disallow="tram rail_urban rail rail_electric pedestrian ship" speed="9.85" length="21.67" width="3.50" shape="-9.61,-115.15 -10.26,-121.96 -12.31,-126.86 -15.75,-129.85 -20.59,-130.93"/>
    </edge>
    <edge id=":106_8" function="internal">
        <lane id=":106_8_0" index="0" disallow="tram rail_urban rail rail_electric pedestrian ship" speed="13.89" length="35.27" width="3.50" shape="-9.61,-115.15 -9.39,-150.42"/>
        <lane id=":106_8_1" index="1" disallow="tram rail_urban rail rail_electric pedestrian ship" speed="13.89" length="35.27" width="3.50" shape="-6.11,-115.13 -5.89,-150.40"/>
    </edge>
    <edge id=":106_10" function="internal">
        <lane id=":106_10_0" index="0" disallow="tram rail_urban rail rail_electric pedestrian ship" speed="12.38" length="16.43" width="3.50" shape="-6.11,-115.13 -4.53,-123.66 0.10,-129.70 0.23,-129.76"/>
    </edge>
    <edge id=":106_11" function="internal">
        <lane id=":106_11_0" index="0" disallow="tram rail_urban rail rail_electric pedestrian ship" speed="12.38" length="19.11" width="3.50" shape="0.23,-129.76 7.79,-133.26 18.51,-134.33"/>
    </edge>
    <edge id=":172_0" function="internal">
        <lane id=":172_0_0" index="0" disallow="tram rail_urban rail rail_electric pedestrian ship" speed="7.64" length="14.55" width="3.50" shape="-63.08,-126.39,0.02 -67.87,-126.06,0.02 -71.29,-124.82,0.02 -73.35,-122.68,0.02 -74.04,-119.62,0.02"/>
    </edge>
    <edge id=":172_1" function="internal">
        <lane id=":172_1_0" index="0" disallow="tram rail_urban rail rail_electric pedestrian ship" speed="13.89" length="36.85" width="3.50" shape="-62.95,-131.89,0.02 -99.80,-132.73,0.02"/>
    </edge>
    <edge id=":172_2" function="internal">
        <lane id=":172_2_0" index="0" disallow="tram rail_urban rail rail_electric pedestrian ship" speed="11.74" length="11.69" width="3.50" shape="-62.95,-131.89,0.02 -72.68,-133.12,0.02 -74.39,-133.90,0.02"/>
    </edge>
    <edge id=":172_9" function="internal">
        <lane id=":172_9_0" index="0" disallow="tram rail_urban rail rail_electric pedestrian ship" speed="11.74" length="19.53" width="3.50" shape="-74.39,-133.90,0.02 -79.62,-136.29,0.02 -83.77,-141.41,0.02 -85.13,-148.48,0.02"/>
    </edge>
    <edge id=":172_3" function="internal">
        <lane id=":172_3_0" index="0" disallow="tram rail_urban rail rail_electric pedestrian ship" speed="11.45" length="30.47" width="3.50" shape="-78.13,-148.45,0.02 -79.51,-141.39,0.02 -83.58,-136.41,0.02 -90.34,-133.53,0.02 -99.80,-132.73,0.02"/>
    </edge>
    <edge id=":172_4" function="internal">
        <lane id=":172_4_0" index="0" disallow="tram rail_urban rail rail_electric pedestrian ship" speed="9.12" length="18.92" width="3.50" shape="-99.72,-136.23,0.02 -94.88,-136.90,0.02 -91.42,-139.17,0.02 -89.34,-143.03,0.02 -88.63,-148.49,0.02"/>
    </edge>
    <edge id=":172_5" function="internal">
        <lane id=":172_5_0" index="0" disallow="tram rail_urban rail rail_electric pedestrian ship" speed="13.89" length="36.85" width="3.50" shape="-99.72,-136.23,0.02 -62.87,-135.39,0.02"/>
    </edge>
    <edge id=":172_6" function="internal">
        <lane id=":172_6_0" index="0" disallow="tram rail_urban rail rail_electric pedestrian ship" speed="9.48" length="19.95" width="3.50" shape="-88.04,-119.66,0.02 -88.76,-125.28,0.02 -90.96,-129.33,0.02 -94.64,-131.81,0.02 -99.80,-132.73,0.02"/>
    </edge>
    <edge id=":172_7" function="internal">
        <lane id=":172_7_0" index="0" disallow="tram rail_urban rail rail_electric pedestrian ship" speed="13.89" length="28.84" width="3.50" shape="-88.04,-119.66,0.02 -88.63,-148.49,0.02"/>
    </edge>
    <edge id=":172_8" function="internal">
        <lane id=":172_8_0" index="0" disallow="tram rail_urban rail rail_electric pedestrian ship" speed="11.44" length="30.49" width="3.50" shape="-84.54,-119.65,0.02 -83.17,-126.72,0.02 -79.10,-131.70,0.02 -72.34,-134.59,0.02 -62.87,-135.39,0.02"/>
    </edge>
    <edge id=":222_0" function="internal">
        <lane id=":222_0_0" index="0" disallow="tram rail_urban rail rail_electric pedestrian ship" speed="9.54" length="20.32" width="3.50" shape="82.23,149.06,8.13 81.25,143.59,8.13 78.76,139.72,8.13 74.76,137.46,8.13 69.24,136.79,8.13"/>
    </edge>
    <edge id=":222_1" function="internal">
        <lane id=":222_1_0" index="0" disallow="tram rail_urban rail rail_electric pedestrian ship" speed="13.89" length="28.55" width="3.50" shape="82.23,149.06,8.13 81.22,120.53,8.13"/>
    </edge>
    <edge id=":222_2" function="internal">
        <lane id=":222_2_0" index="0" disallow="tram rail_urban rail rail_electric pedestrian ship" speed="10.58" length="8.52" width="3.50" shape="82.23,149.06,8.13 82.99,142.02,8.13 83.69,140.76,8.13"/>
    </edge>
    <edge id=":222_12" function="internal">
        <lane id=":222_12_0" index="0" disallow="tram rail_urban rail rail_electric pedestrian ship" speed="10.58" length="17.26" width="3.50" shape="83.69,140.76,8.13 85.82,136.95,8.13 90.73,133.83,8.13 97.71,132.68,8.13"/>
    </edge>
    <edge id=":222_3" function="internal">
        <lane id=":222_3_0" index="0" disallow="tram rail_urban rail rail_electric pedestrian ship" speed="9.40" length="20.09" width="3.50" shape="97.79,136.18,8.13 92.35,137.08,8.13 88.52,139.50,8.13 86.32,143.46,8.13 85.73,148.94,8.13"/>
    </edge>
    <edge id=":222_4" function="internal">
        <lane id=":222_4_0" index="0" disallow="tram rail_urban rail rail_electric pedestrian ship" speed="13.89" length="28.55" width="3.50" shape="97.79,136.18,8.13 69.24,136.79,8.13"/>
    </edge>
    <edge id=":222_5" function="internal">
        <lane id=":222_5_0" index="0" disallow="tram rail_urban rail rail_electric pedestrian ship" speed="10.72" length="25.91" width="3.50" shape="97.79,136.18,8.13 90.75,135.33,8.13 85.65,132.44,8.13 82.47,127.50,8.13 81.22,120.53,8.13"/>
    </edge>
    <edge id=":222_6" function="internal">
        <lane id=":222_6_0" index="0" disallow="tram rail_urban rail rail_electric pedestrian ship" speed="9.54" length="20.32" width="3.50" shape="84.72,120.40,8.13 85.70,125.87,8.13 88.19,129.74,8.13 92.20,132.01,8.13 97.71,132.68,8.13"/>
    </edge>
    <edge id=":222_7" function="internal">
        <lane id=":222_7_0" index="0" disallow="tram rail_urban rail rail_electric pedestrian ship" speed="13.89" length="28.55" width="3.50" shape="84.72,120.40,8.13 85.73,148.94,8.13"/>
    </edge>
    <edge id=":222_8" function="internal">
        <lane id=":222_8_0" index="0" disallow="tram rail_urban rail rail_electric pedestrian ship" speed="10.58" length="8.52" width="3.50" shape="84.72,120.40,8.13 83.97,127.44,8.13 83.26,128.70,8.13"/>
    </edge>
    <edge id=":222_13" function="internal">
        <lane id=":222_13_0" index="0" disallow="tram rail_urban rail rail_electric pedestrian ship" speed="10.58" length="17.26" width="3.50" shape="83.26,128.70,8.13 81.13,132.52,8.13 76.23,135.64,8.13 69.24,136.79,8.13"/>
    </edge>
    <edge id=":222_9" function="internal">
        <lane id=":222_9_0" index="0" disallow="tram rail_urban rail rail_electric pedestrian ship" speed="9.40" length="20.09" width="3.50" shape="69.17,133.29,8.13 74.61,132.39,8.13 78.43,129.97,8.13 80.64,126.01,8.13 81.22,120.53,8.13"/>
    </edge>
    <edge id=":222_10" function="internal">
        <lane id=":222_10_0" index="0" disallow="tram rail_urban rail rail_electric pedestrian ship" speed="13.89" length="28.55" width="3.50" shape="69.17,133.29,8.13 97.71,132.68,8.13"/>
    </edge>
    <edge id=":222_11" function="internal">
        <lane id=":222_11_0" index="0" disallow="tram rail_urban rail rail_electric pedestrian ship" speed="10.72" length="25.91" width="3.50" shape="69.17,133.29,8.13 76.20,134.14,8.13 81.31,137.03,8.13 84.48,141.96,8.13 85.73,148.94,8.13"/>
    </edge>
    <edge id=":257_0" function="internal">
        <lane id=":257_0_0" index="0" disallow="tram rail_urban rail rail_electric pedestrian ship" speed="9.44" length="19.75" width="3.50" shape="77.65,19.45,0.08 76.70,14.16,0.08 74.27,10.40,0.08 70.37,8.19,0.08 65.00,7.51,0.08"/>
    </edge>
    <edge id=":257_1" function="internal">
        <lane id=":257_1_0" index="0" disallow="tram rail_urban rail rail_electric pedestrian ship" speed="9.30" length="19.73" width="3.50" shape="93.27,7.09,0.08 87.81,7.92,0.08 83.97,10.24,0.08 81.75,14.04,0.08 81.15,19.33,0.08"/>
    </edge>
    <edge id=":257_2" function="internal">
        <lane id=":257_2_0" index="0" disallow="tram rail_urban rail rail_electric pedestrian ship" speed="13.89" length="28.27" width="3.50" shape="93.22,3.59,0.08 64.95,4.01,0.08"/>
    </edge>
    <edge id=":257_3" function="internal">
        <lane id=":257_3_0" index="0" speed="13.89" length="28.27" width="2.00" shape="64.69,-13.37,0.08 92.96,-13.79,0.08"/>
    </edge>
    <edge id=":257_4" function="internal">
        <lane id=":257_4_0" index="0" speed="13.89" length="27.77" width="2.00" shape="64.69,-13.37,0.08 74.68,-11.47,0.08 81.99,-5.43,0.08 85.34,1.96,0.08"/>
    </edge>
    <edge id=":257_5" function="internal">
        <lane id=":257_5_0" index="0" disallow="tram rail_urban rail rail_electric pedestrian ship" speed="13.89" length="28.27" width="3.50" shape="64.77,-7.49,0.08 93.05,-7.91,0.08"/>
        <lane id=":257_5_1" index="1" disallow="tram rail_urban rail rail_electric pedestrian ship" speed="13.89" length="28.27" width="3.50" shape="64.83,-3.99,0.08 93.10,-4.41,0.08"/>
    </edge>
    <edge id=":257_7" function="internal">
        <lane id=":257_7_0" index="0" disallow="tram rail_urban rail rail_electric pedestrian ship" speed="7.64" length="16.35" width="3.50" shape="64.83,-3.99,0.08 73.19,-2.65,0.08 79.28,1.67,0.08 79.47,2.04,0.08"/>
    </edge>
    <edge id=":257_8" function="internal">
        <lane id=":257_8_0" index="0" disallow="tram rail_urban rail rail_electric pedestrian ship" speed="11.88" length="13.98" width="3.50" shape="64.83,-3.99,0.08 71.66,-2.62,0.08 76.65,1.72,0.08 76.81,2.08,0.08"/>
    </edge>
    <edge id=":257_9" function="internal">
        <lane id=":257_9_0" index="0" speed="13.89" length="17.51" width="2.00" shape="85.34,1.96,0.08 86.60,4.75,0.08 88.53,19.06,0.08"/>
    </edge>
    <edge id=":257_10" function="internal">
        <lane id=":257_10_0" index="0" disallow="tram rail_urban rail rail_electric pedestrian ship" speed="7.64" length="18.17" width="3.50" shape="79.47,2.04,0.08 83.10,8.95,0.08 84.65,19.20,0.08"/>
    </edge>
    <edge id=":257_11" function="internal">
        <lane id=":257_11_0" index="0" disallow="tram rail_urban rail rail_electric pedestrian ship" speed="11.88" length="17.95" width="3.50" shape="76.81,2.08,0.08 79.82,9.04,0.08 81.15,19.33,0.08"/>
    </edge>
    <edge id=":268_0" function="internal">
        <lane id=":268_0_0" index="0" disallow="tram rail_urban rail rail_electric pedestrian ship" speed="13.89" length="37.97" width="3.50" shape="177.30,207.90,-0.04 166.06,207.30,-0.04 158.42,206.02,-0.04 150.77,204.83,-0.04 139.54,204.50,-0.04"/>
    </edge>
    <edge id=":268_1" function="internal">
        <lane id=":268_1_0" index="0" disallow="tram rail_urban rail rail_electric pedestrian ship" speed="10.97" length="27.11" width="3.50" shape="154.87,183.53,-0.04 156.34,188.07,-0.04 160.57,191.31,-0.04 167.55,193.25,-0.04 177.30,193.90,-0.04"/>
    </edge>
    <edge id=":268_2" function="internal">
        <lane id=":268_2_0" index="0" disallow="all" speed="7.64" length="10.13" width="0.50" shape="139.19,190.51,-0.04 145.86,182.88,-0.04"/>
    </edge>
    <edge id=":29.28_0" function="internal">
        <lane id=":29.28_0_0" index="0" speed="6.81" length="10.34" width="2.00" shape="-212.36,-100.92 -218.64,-109.14"/>
    </edge>
    <edge id=":29.28_1" function="internal">
        <lane id=":29.28_1_0" index="0" disallow="all" speed="1.39" length="8.51" width="0.63" shape="-213.68,-100.91 -218.64,-107.82"/>
    </edge>
    <edge id=":29.28_2" function="internal">
        <lane id=":29.28_2_0" index="0" disallow="all" speed="1.39" length="7.72" width="0.50" shape="-214.25,-100.90 -218.63,-107.25"/>
    </edge>
    <edge id=":29.28_3" function="internal">
        <lane id=":29.28_3_0" index="0" disallow="all" speed="1.39" length="3.57" width="0.50" shape="-221.75,-100.85 -221.55,-100.37 -220.96,-100.02 -219.98,-99.82 -218.61,-99.75"/>
    </edge>
    <edge id=":29.28_4" function="internal">
        <lane id=":29.28_4_0" index="0" disallow="all" speed="1.39" length="4.45" width="0.63" shape="-222.31,-100.85 -222.08,-100.12 -221.38,-99.60 -220.23,-99.29 -218.61,-99.19"/>
    </edge>
    <edge id=":298_0" function="internal">
        <lane id=":298_0_0" index="0" disallow="tram rail_urban rail rail_electric pedestrian ship" speed="13.89" length="28.28" width="3.50" shape="99.10,205.52,-0.06 70.84,206.23,-0.06"/>
        <lane id=":298_0_1" index="1" disallow="tram rail_urban rail rail_electric pedestrian ship" speed="13.89" length="28.28" width="3.50" shape="99.02,202.02,-0.06 70.75,202.73,-0.06"/>
    </edge>
    <edge id=":298_2" function="internal">
        <lane id=":298_2_0" index="0" disallow="tram rail_urban rail rail_electric pedestrian ship" speed="9.11" length="18.94" width="3.50" shape="86.18,180.76,-0.06 86.98,185.59,-0.06 89.34,188.99,-0.06 93.27,190.97,-0.06 98.75,191.52,-0.06"/>
    </edge>
    <edge id=":298_3" function="internal">
        <lane id=":298_3_0" index="0" disallow="tram rail_urban rail rail_electric pedestrian ship" speed="9.27" length="18.98" width="3.50" shape="70.49,192.23,-0.06 75.83,191.40,-0.06 79.65,189.21,-0.06 81.93,185.67,-0.06 82.68,180.77,-0.06"/>
    </edge>
    <edge id=":298_4" function="internal">
        <lane id=":298_4_0" index="0" disallow="tram rail_urban rail rail_electric pedestrian ship" speed="13.89" length="28.28" width="3.50" shape="70.49,192.23,-0.06 98.75,191.52,-0.06"/>
        <lane id=":298_4_1" index="1" disallow="tram rail_urban rail rail_electric pedestrian ship" speed="13.89" length="28.28" width="3.50" shape="70.57,195.73,-0.06 98.84,195.02,-0.06"/>
    </edge>
    <edge id=":30.29_0" function="internal">
        <lane id=":30.29_0_0" index="0" disallow="all" speed="1.39" length="9.48" width="0.63" shape="-222.68,-107.80 -218.76,-107.71 -215.96,-107.39 -214.28,-106.83 -213.71,-106.04"/>
    </edge>
    <edge id=":30.29_1" function="internal">
        <lane id=":30.29_1_0" index="0" disallow="all" speed="1.39" length="8.68" width="0.50" shape="-222.68,-107.23 -219.01,-107.18 -216.38,-106.96 -214.81,-106.58 -214.28,-106.04"/>
    </edge>
    <edge id=":30.29_2" function="internal">
        <lane id=":30.29_2_0" index="0" disallow="all" speed="1.39" length="6.31" width="0.50" shape="-222.62,-99.73 -221.78,-105.99"/>
    </edge>
    <edge id=":30.29_3" function="internal">
        <lane id=":30.29_3_0" index="0" disallow="all" speed="1.39" length="6.82" width="0.63" shape="-222.62,-99.16 -222.35,-105.98"/>
    </edge>
    <edge id=":334_0" function="internal">
        <lane id=":334_0_0" index="0" disallow="tram rail_urban rail rail_electric pedestrian ship" speed="13.89" length="35.77" width="3.50" shape="22.54,207.44 -13.22,208.34"/>
        <lane id=":334_0_1" index="1" disallow="tram rail_urban rail rail_electric pedestrian ship" speed="13.89" length="35.77" width="3.50" shape="22.45,203.94 -13.31,204.84"/>
    </edge>
    <edge id=":334_2" function="internal">
        <lane id=":334_2_0" index="0" disallow="tram rail_urban rail rail_electric pedestrian ship" speed="12.24" length="17.06" width="3.50" shape="22.45,203.94 13.06,202.84 6.45,199.09"/>
    </edge>
    <edge id=":334_8" function="internal">
        <lane id=":334_8_0" index="0" disallow="tram rail_urban rail rail_electric pedestrian ship" speed="12.24" length="17.44" width="3.50" shape="6.45,199.09 6.28,199.00 2.10,192.42 0.54,183.09"/>
    </edge>
    <edge id=":334_3" function="internal">
        <lane id=":334_3_0" index="0" disallow="tram rail_urban rail rail_electric pedestrian ship" speed="8.86" length="17.56" width="3.50" shape="11.03,182.83 11.83,187.58 13.96,190.93 17.41,192.88 22.19,193.45"/>
    </edge>
    <edge id=":334_4" function="internal">
        <lane id=":334_4_0" index="0" disallow="tram rail_urban rail rail_electric pedestrian ship" speed="12.24" length="34.49" width="3.50" shape="7.53,182.92 6.43,192.31 2.59,199.09 -3.99,203.27 -13.31,204.84"/>
    </edge>
    <edge id=":334_5" function="internal">
        <lane id=":334_5_0" index="0" disallow="tram rail_urban rail rail_electric pedestrian ship" speed="8.87" length="17.56" width="3.50" shape="-13.57,194.34 -8.83,193.54 -5.48,191.42 -3.52,187.96 -2.96,183.18"/>
    </edge>
    <edge id=":334_6" function="internal">
        <lane id=":334_6_0" index="0" disallow="tram rail_urban rail rail_electric pedestrian ship" speed="13.89" length="35.77" width="3.50" shape="-13.57,194.34 22.19,193.45"/>
        <lane id=":334_6_1" index="1" disallow="tram rail_urban rail rail_electric pedestrian ship" speed="13.89" length="35.77" width="3.50" shape="-13.48,197.84 22.27,196.94"/>
    </edge>
    <edge id=":36.35_0" function="internal">
        <lane id=":36.35_0_0" index="0" speed="13.89" length="0.10" width="2.00" shape="13.68,-179.71 13.68,-179.71"/>
        <lane id=":36.35_0_1" index="1" speed="13.89" length="0.10" width="2.00" shape="11.68,-179.72 11.68,-179.72"/>
        <lane id=":36.35_0_2" index="2" disallow="all" speed="1.39" length="0.10" width="0.63" shape="10.36,-179.73 10.36,-179.73"/>
        <lane id=":36.35_0_3" index="3" disallow="all" speed="1.39" length="0.10" width="2.50" shape="8.79,-179.74 8.79,-179.74"/>
        <lane id=":36.35_0_4" index="4" disallow="tram rail_urban rail rail_electric pedestrian ship" speed="13.89" length="0.10" width="3.50" shape="5.79,-179.76 5.79,-179.76"/>
        <lane id=":36.35_0_5" index="5" disallow="tram rail_urban rail rail_electric pedestrian ship" speed="13.89" length="0.10" width="3.50" shape="2.29,-179.78 2.29,-179.78"/>
        <lane id=":36.35_0_6" index="6" disallow="all" speed="1.39" length="0.10" width="0.50" shape="0.29,-179.79 0.29,-179.79"/>
        <lane id=":36.35_0_7" index="7" disallow="all" speed="1.39" length="0.10" width="3.50" shape="-1.71,-179.80 -1.71,-179.80"/>
        <lane id=":36.35_0_8" index="8" disallow="all" speed="1.39" length="0.10" width="0.50" shape="-3.71,-179.82 -3.71,-179.82"/>
    </edge>
    <edge id=":36.35_9" function="internal">
        <lane id=":36.35_9_0" index="0" speed="13.89" length="0.10" width="2.00" shape="-15.09,-179.89 -15.09,-179.89"/>
        <lane id=":36.35_9_1" index="1" disallow="all" speed="1.39" length="0.10" width="0.63" shape="-13.77,-179.88 -13.77,-179.88"/>
        <lane id=":36.35_9_2" index="2" disallow="all" speed="1.39" length="0.10" width="2.50" shape="-12.21,-179.87 -12.21,-179.87"/>
        <lane id=":36.35_9_3" index="3" disallow="tram rail_urban rail rail_electric pedestrian ship" speed="13.89" length="0.10" width="3.50" shape="-9.21,-179.85 -9.21,-179.85"/>
        <lane id=":36.35_9_4" index="4" disallow="tram rail_urban rail rail_electric pedestrian ship" speed="13.89" length="0.10" width="3.50" shape="-5.71,-179.83 -5.71,-179.83"/>
    </edge>
    <edge id=":363_0" function="internal">
        <lane id=":363_0_0" index="0" disallow="tram rail_urban rail rail_electric pedestrian ship" speed="13.89" length="28.82" width="3.50" shape="-88.42,152.66,0.05 -88.70,123.78,0.05"/>
        <lane id=":363_0_1" index="1" disallow="tram rail_urban rail rail_electric pedestrian ship" speed="13.89" length="28.82" width="3.50" shape="-84.92,152.54,0.05 -85.20,123.79,0.05"/>
    </edge>
    <edge id=":363_2" function="internal">
        <lane id=":363_2_0" index="0" disallow="tram rail_urban rail rail_electric pedestrian ship" speed="9.15" length="18.97" width="3.50" shape="-63.57,139.63,0.05 -68.49,140.51,0.05 -71.93,142.89,0.05 -73.91,146.78,0.05 -74.43,152.18,0.05"/>
    </edge>
    <edge id=":363_3" function="internal">
        <lane id=":363_3_0" index="0" disallow="tram rail_urban rail rail_electric pedestrian ship" speed="13.89" length="36.04" width="3.50" shape="-63.57,139.63,0.05 -99.61,140.41,0.05"/>
    </edge>
    <edge id=":363_4" function="internal">
        <lane id=":363_4_0" index="0" disallow="tram rail_urban rail rail_electric pedestrian ship" speed="11.44" length="30.55" width="3.50" shape="-63.57,139.63,0.05 -73.05,138.82,0.05 -79.82,135.91,0.05 -83.87,130.90,0.05 -85.20,123.79,0.05"/>
    </edge>
    <edge id=":363_5" function="internal">
        <lane id=":363_5_0" index="0" disallow="tram rail_urban rail rail_electric pedestrian ship" speed="9.11" length="18.95" width="3.50" shape="-74.70,123.82,0.05 -74.02,129.30,0.05 -71.96,133.17,0.05 -68.50,135.45,0.05 -63.65,136.14,0.05"/>
    </edge>
    <edge id=":363_6" function="internal">
        <lane id=":363_6_0" index="0" disallow="tram rail_urban rail rail_electric pedestrian ship" speed="13.89" length="28.43" width="3.50" shape="-74.70,123.82,0.05 -74.43,152.18,0.05"/>
        <lane id=":363_6_1" index="1" disallow="tram rail_urban rail rail_electric pedestrian ship" speed="13.89" length="28.43" width="3.50" shape="-78.20,123.81,0.05 -77.93,152.30,0.05"/>
    </edge>
    <edge id=":363_8" function="internal">
        <lane id=":363_8_0" index="0" disallow="tram rail_urban rail rail_electric pedestrian ship" speed="11.65" length="13.35" width="3.50" shape="-78.20,123.81,0.05 -79.56,130.90,0.05 -83.34,135.72,0.05"/>
    </edge>
    <edge id=":363_12" function="internal">
        <lane id=":363_12_0" index="0" disallow="tram rail_urban rail rail_electric pedestrian ship" speed="11.65" length="17.21" width="3.50" shape="-83.34,135.72,0.05 -83.58,136.03,0.05 -90.26,139.20,0.05 -99.61,140.41,0.05"/>
    </edge>
    <edge id=":363_9" function="internal">
        <lane id=":363_9_0" index="0" disallow="tram rail_urban rail rail_electric pedestrian ship" speed="9.37" length="19.38" width="3.50" shape="-99.69,136.91,0.05 -94.89,136.00,0.05 -91.47,133.51,0.05 -89.40,129.44,0.05 -88.70,123.78,0.05"/>
    </edge>
    <edge id=":363_10" function="internal">
        <lane id=":363_10_0" index="0" disallow="tram rail_urban rail rail_electric pedestrian ship" speed="13.89" length="36.04" width="3.50" shape="-99.69,136.91,0.05 -63.65,136.14,0.05"/>
    </edge>
    <edge id=":363_11" function="internal">
        <lane id=":363_11_0" index="0" disallow="tram rail_urban rail rail_electric pedestrian ship" speed="11.52" length="30.12" width="3.50" shape="-99.69,136.91,0.05 -90.38,137.70,0.05 -83.65,140.53,0.05 -79.50,145.39,0.05 -77.93,152.30,0.05"/>
    </edge>
    <edge id=":38.11_0" function="internal">
        <lane id=":38.11_0_0" index="0" disallow="all" speed="1.39" length="0.57" width="0.63" shape="25.51,-0.71 25.51,0.03"/>
        <lane id=":38.11_0_1" index="1" disallow="all" speed="1.39" length="0.57" width="0.50" shape="24.94,-0.69 24.94,0.02"/>
        <lane id=":38.11_0_2" index="2" disallow="tram rail_urban rail rail_electric pedestrian ship" speed="13.89" length="0.57" width="3.50" shape="22.94,-0.65 22.94,0.00"/>
        <lane id=":38.11_0_3" index="3" disallow="tram rail_urban rail rail_electric pedestrian ship" speed="13.89" length="0.57" width="3.50" shape="19.44,-0.57 19.44,-0.04"/>
        <lane id=":38.11_0_4" index="4" disallow="all" speed="1.39" length="0.57" width="0.50" shape="17.45,-0.53 17.44,-0.06"/>
        <lane id=":38.11_0_5" index="5" disallow="all" speed="1.39" length="0.57" width="0.63" shape="16.88,-0.51 16.87,-0.06"/>
        <lane id=":38.11_0_6" index="6" speed="13.89" length="0.57" width="2.00" shape="15.56,-0.49 15.56,-0.08"/>
    </edge>
    <edge id=":40.39_0" function="internal">
        <lane id=":40.39_0_0" index="0" disallow="all" speed="1.39" length="1.09" width="0.63" shape="0.37,25.62 -0.92,25.63"/>
        <lane id=":40.39_0_1" index="1" disallow="all" speed="1.39" length="1.09" width="0.50" shape="0.36,25.05 -0.92,25.06"/>
        <lane id=":40.39_0_2" index="2" disallow="tram rail_urban rail rail_electric pedestrian ship" speed="13.89" length="1.09" width="3.50" shape="0.30,23.05 -0.89,23.06"/>
        <lane id=":40.39_0_3" index="3" disallow="tram rail_urban rail rail_electric pedestrian ship" speed="13.89" length="1.09" width="3.50" shape="0.20,19.55 -0.86,19.56"/>
        <lane id=":40.39_0_4" index="4" disallow="all" speed="1.39" length="1.09" width="0.50" shape="0.14,17.55 -0.84,17.56"/>